<?xml version="1.0" encoding="utf-8"?>
<!DOCTYPE population SYSTEM "http://www.matsim.org/files/dtd/population_v5.dtd">

<population>

<!-- ====================================================================== -->
	
	<person id="768_2" sex="m" age="41" car_avail="always" employed="yes">
		<plan selected="yes">
			<act type="home" facility="14993_17" x="685633.267" y="4823347.2456" end_time="07:39:38" />
			<leg mode="drt">
			</leg>
			<act type="work" facility="7747_16" x="685411.5823999997" y="4824336.984999999" start_time="07:54:38" end_time="18:04:48" />
			<leg mode="drt">
			</leg>
			<act type="home" facility="14993_17" x="685633.267" y="4823347.2456" />
		</plan>

	</person>

<!-- ====================================================================== -->

	<person id="768_1" sex="f" age="42" car_avail="always" employed="yes">
		<plan selected="yes">
			<act type="home" facility="14993_17" x="685633.267" y="4823347.2456" end_time="07:07:45" />
			<leg mode="drt">
			</leg>
			<act type="work" facility="8499_10" x="682859.7642999999" y="4823475.499600001" start_time="07:22:45" end_time="17:42:14" />
			<leg mode="drt">
			</leg>
			<act type="home" facility="14993_17" x="685633.267" y="4823347.2456" />
		</plan>

	</person>

<!-- ====================================================================== -->

	<person id="5153_2" sex="f" age="44" car_avail="always" employed="yes">
		<plan selected="yes">
			<act type="home" facility="20297_12" x="678785.3909" y="4822565.4717" end_time="07:34:09" />
			<leg mode="drt">
			</leg>
			<act type="work" facility="9117_11" x="680911.3173000002" y="4823573.8496" start_time="07:49:09" end_time="17:26:47" />
			<leg mode="drt">
			</leg>
			<act type="home" facility="20297_12" x="678785.3909" y="4822565.4717" />
		</plan>

	</person>

<!-- ====================================================================== -->

	<person id="5153_1" sex="m" age="46" car_avail="always" employed="yes">
		<plan selected="yes">
			<act type="home" facility="20297_12" x="678785.3909" y="4822565.4717" end_time="07:21:19" />
			<leg mode="drt">
			</leg>
			<act type="work" facility="20025_11" x="680760.9926000005" y="4824476.318499999" start_time="07:36:19" end_time="17:28:34" />
			<leg mode="drt">
			</leg>
			<act type="home" facility="20297_12" x="678785.3909" y="4822565.4717" />
		</plan>

	</person>

<!-- ====================================================================== -->

	<person id="989_2" sex="f" age="57" car_avail="always" employed="yes">
		<plan selected="yes">
			<act type="home" facility="10167_18" x="685620.3037999999" y="4823748.7228999995" end_time="07:42:18" />
			<leg mode="drt">
			</leg>
			<act type="work" facility="8014_16" x="684459.0318" y="4824298.4399" start_time="07:57:18" end_time="17:17:04" />
			<leg mode="drt">
			</leg>
			<act type="home" facility="10167_18" x="685620.3037999999" y="4823748.7228999995" />
		</plan>

	</person>

<!-- ====================================================================== -->

	<person id="2557_2" sex="f" age="48" car_avail="always" employed="yes">
		<plan selected="yes">
			<act type="home" facility="665_3" x="678792.8493999997" y="4828518.5812" end_time="07:21:12" />
			<leg mode="drt">
			</leg>
			<act type="work" facility="21234_4" x="681910.7981000002" y="4826764.3287" start_time="07:36:12" end_time="17:33:38" />
			<leg mode="drt">
			</leg>
			<act type="home" facility="665_3" x="678792.8493999997" y="4828518.5812" />
		</plan>

	</person>

<!-- ====================================================================== -->

	<person id="7210_2" sex="m" age="69" car_avail="always" employed="yes">
		<plan selected="yes">
			<act type="home" facility="20515_2" x="685066.3499999996" y="4831699.029200001" end_time="07:18:38" />
			<leg mode="drt">
			</leg>
			<act type="work" facility="21311_6" x="686108.5669" y="4827852.5614" start_time="07:33:38" end_time="17:23:41" />
			<leg mode="drt">
			</leg>
			<act type="home" facility="20515_2" x="685066.3499999996" y="4831699.029200001" />
		</plan>

	</person>

</population>