<?xml version="1.0" encoding="utf-8"?>
<!DOCTYPE population SYSTEM "http://www.matsim.org/files/dtd/population_v5.dtd">

<population>

<!-- ====================================================================== -->

	<person id="6510_1" sex="f" age="51" car_avail="always" employed="yes">
		<plan selected="yes">
			<act type="home" facility="1339_18" x="686386.7981000002" y="4824847.9253" end_time="07:36:36" />
			<leg mode="car">
			</leg>
			<act type="work" facility="7783_16" x="684264.4409999996" y="4824161.496099999" start_time="07:51:36" end_time="17:20:07" />
			<leg mode="car">
			</leg>
			<act type="home" facility="1339_18" x="686386.7981000002" y="4824847.9253" />
		</plan>

	</person>

<!-- ====================================================================== -->
</population>