<?xml version="1.0" encoding="UTF-8"?>
<!DOCTYPE network SYSTEM "http://www.matsim.org/files/dtd/network_v1.dtd">
<network>

<!-- ====================================================================== -->

	<nodes>
		<node id="103775899" x="456283.916991751" y="5733496.654420585" />
		<node id="107672423" x="454341.19496910257" y="5734567.121554276" />
		<node id="107672433" x="454335.0643978841" y="5734584.461633526" />
		<node id="107672447" x="454327.4312129151" y="5734602.78301677" />
		<node id="107672460" x="454292.34333989257" y="5734598.485593362" />
		<node id="107696148" x="454465.430545346" y="5734437.052454294" />
		<node id="107705048" x="454281.5752045011" y="5734662.994194737" />
		<node id="107705053" x="454313.0661071494" y="5734662.66382071" />
		<node id="107705056" x="454380.21706556267" y="5734668.895243694" />
		<node id="117848781" x="465045.6821632263" y="5739496.946885702" />
		<node id="117863205" x="468832.7074335959" y="5747100.597249698" />
		<node id="117863213" x="468722.44252899283" y="5746987.724221597" />
		<node id="118002647" x="457778.3480953173" y="5740826.539192754" />
		<node id="118002655" x="457788.04219059134" y="5740832.508416716" />
		<node id="118002665" x="457758.2994627853" y="5740896.757680769" />
		<node id="118002673" x="457749.1507024678" y="5740892.507927788" />
		<node id="119310809" x="457723.7133578459" y="5736525.935907092" />
		<node id="119310815" x="457723.5934229569" y="5736402.4549384415" />
		<node id="119310826" x="457792.1700304942" y="5736321.29672253" />
		<node id="119310836" x="457260.1240663901" y="5736658.262121752" />
		<node id="119310839" x="457576.0065726833" y="5736842.746975497" />
		<node id="119310843" x="457198.773397066" y="5736838.734921684" />
		<node id="119310864" x="457270.9616305074" y="5737320.071295429" />
		<node id="119310902" x="457322.035758029" y="5738409.123329877" />
		<node id="121764669" x="452698.60047414515" y="5734179.047208218" />
		<node id="121767698" x="452618.3350803455" y="5734611.003801437" />
		<node id="121768570" x="452652.6433713666" y="5734433.152793615" />
		<node id="121771724" x="452579.11930218607" y="5735158.528793756" />
		<node id="121771726" x="452572.5726182314" y="5735161.749304505" />
		<node id="121771729" x="452558.94723356754" y="5735148.352576761" />
		<node id="121771731" x="452574.3945648763" y="5735138.30785958" />
		<node id="121774202" x="452584.5080602458" y="5735151.804445305" />
		<node id="121790994" x="453543.48826614895" y="5730844.934560012" />
		<node id="121791633" x="453532.1315901085" y="5730438.677653699" />
		<node id="121793426" x="452920.3378011047" y="5729291.748015723" />
		<node id="121793876" x="452965.41595186153" y="5729165.92093806" />
		<node id="121797018" x="452205.1034440301" y="5727170.802448351" />
		<node id="121798130" x="450692.61225571734" y="5723905.818551693" />
		<node id="121802987" x="457928.7652018288" y="5717466.697949522" />
		<node id="121811330" x="456308.5762509401" y="5729827.108170169" />
		<node id="121813282" x="455904.20745112805" y="5730310.228093567" />
		<node id="121815032" x="455823.4304444623" y="5730232.677733851" />
		<node id="121818108" x="454671.5376668955" y="5734867.526558881" />
		<node id="121818483" x="454593.1639741511" y="5734978.724488415" />
		<node id="121822526" x="453015.9533340217" y="5735586.980189665" />
		<node id="121822530" x="452968.23988498945" y="5735551.388517371" />
		<node id="121822532" x="453007.2579885999" y="5735543.33830723" />
		<node id="121825850" x="452979.47514258337" y="5735316.562663571" />
		<node id="121827082" x="452935.0652239109" y="5735200.5905482685" />
		<node id="121850018" x="453092.65910053556" y="5729257.619984291" />
		<node id="121903998" x="451766.0034775487" y="5759107.109956052" />
		<node id="121904101" x="448097.3026492592" y="5757339.12439943" />
		<node id="121904163" x="446414.62396529457" y="5759098.230087268" />
		<node id="121908020" x="459182.4928240019" y="5744869.744914639" />
		<node id="121908032" x="459148.94233591773" y="5744845.247914583" />
		<node id="121908038" x="459158.6052395818" y="5744834.99207522" />
		<node id="121908041" x="459188.23111047054" y="5744846.118325338" />
		<node id="128078486" x="454015.47476626496" y="5728744.20468025" />
		<node id="129745334" x="453145.5919211633" y="5730542.2137506865" />
		<node id="129745337" x="453236.28481795604" y="5730531.973058464" />
		<node id="129745340" x="453331.03636826307" y="5730391.529432791" />
		<node id="129746480" x="453220.4208810372" y="5730405.011906097" />
		<node id="129759221" x="453130.81473578827" y="5730412.762417906" />
		<node id="129941905" x="453119.76348739595" y="5730325.252947095" />
		<node id="130106450" x="453166.4403298431" y="5730737.109380083" />
		<node id="130106456" x="453202.52559235995" y="5730827.222747775" />
		<node id="130106462" x="453209.8041754508" y="5730844.89563248" />
		<node id="130106466" x="453174.9277092314" y="5730757.72958108" />
		<node id="145958177" x="452335.5765112737" y="5734210.18827935" />
		<node id="145958211" x="452676.9789748879" y="5734418.231008369" />
		<node id="145958223" x="452873.9757770156" y="5734518.755779425" />
		<node id="145958233" x="453103.40191207296" y="5734633.078310391" />
		<node id="145958258_31074761_27209343" x="453597.51942577073" y="5734703.888641891" />
		<node id="150400772" x="453147.957871237" y="5734055.567040975" />
		<node id="150400777" x="453382.0306150914" y="5734070.790224205" />
		<node id="150400784" x="453522.78723919706" y="5734084.304308389" />
		<node id="150417420" x="475210.4523935472" y="5732091.4782636985" />
		<node id="150417500" x="476233.61316609854" y="5732724.739272253" />
		<node id="150417505" x="475748.43889443437" y="5732991.4330279995" />
		<node id="150417523" x="476138.5676910257" y="5733323.007612831" />
		<node id="150417608" x="473585.67986443755" y="5730237.71897433" />
		<node id="150417626" x="473414.7768361965" y="5729500.950550028" />
		<node id="150987272" x="463671.0529678296" y="5715759.205476897" />
		<node id="150987283" x="463374.7243013255" y="5717235.059479876" />
		<node id="158411370" x="445080.3718622188" y="5711374.472189538" />
		<node id="158459158" x="443094.11394304945" y="5718265.293777673" />
		<node id="158544499" x="452431.6100863718" y="5734311.3524476625" />
		<node id="166125612" x="454012.2558461338" y="5734779.075522286" />
		<node id="166125663" x="454391.33697866806" y="5734805.346306759" />
		<node id="166125671" x="454199.5455060389" y="5734841.35626702" />
		<node id="166125681" x="454324.9127658618" y="5734720.02666129" />
		<node id="166125683" x="454212.5396969044" y="5734571.760255153" />
		<node id="166125686" x="454221.0232038813" y="5734548.314576812" />
		<node id="166125694" x="454140.8089903123" y="5734471.342295133" />
		<node id="166125698" x="454167.9599357986" y="5734421.010103257" />
		<node id="166125734" x="453796.4804724346" y="5735016.449896624" />
		<node id="166125736" x="453828.30205585645" y="5735156.235892738" />
		<node id="166125796" x="453797.3711520212" y="5735551.027290577" />
		<node id="166125799" x="453964.0521244931" y="5735541.836410032" />
		<node id="166125805" x="454066.45333237335" y="5735478.313931186" />
		<node id="166125808" x="455101.3488505176" y="5734992.86309905" />
		<node id="166125811" x="455180.03374510666" y="5734999.892054273" />
		<node id="166125815" x="455209.9463729859" y="5735058.997980335" />
		<node id="166125823" x="454045.0357144057" y="5734442.162380853" />
		<node id="166125881" x="453854.16730533924" y="5734599.735627297" />
		<node id="166125883" x="453633.7617913275" y="5734955.670649305" />
		<node id="166125892" x="453847.7774244124" y="5734826.5059408145" />
		<node id="166910055" x="453117.7726059247" y="5730304.305479218" />
		<node id="166910067" x="453108.04739405576" y="5730210.121312321" />
		<node id="166910078" x="453217.90673654096" y="5730291.89682016" />
		<node id="166910080" x="453208.1262527188" y="5730196.767587494" />
		<node id="166910082" x="453374.88872126397" y="5730212.3735128315" />
		<node id="166910102" x="453283.0598818802" y="5730136.455910665" />
		<node id="166910119" x="453382.8109159464" y="5730294.39562411" />
		<node id="168265240" x="460352.7003606743" y="5766338.24313264" />
		<node id="168265276" x="458920.68380388006" y="5765967.167701526" />
		<node id="168265353" x="456548.038994377" y="5765273.045959722" />
		<node id="168265601" x="453314.1214454608" y="5765417.8876210265" />
		<node id="168265656" x="451387.2264528343" y="5765988.441558701" />
		<node id="168265763" x="460120.2996176394" y="5763073.074272913" />
		<node id="168273151" x="456474.5226157284" y="5733769.662185656" />
		<node id="168273701" x="456373.1992235613" y="5733632.764676647" />
		<node id="168277034" x="455982.12270536314" y="5733812.7486648755" />
		<node id="168617623" x="461913.3526115607" y="5728892.732523896" />
		<node id="168617657" x="461934.30012009933" y="5728918.010963379" />
		<node id="168618359" x="462140.93940757756" y="5728951.9466921855" />
		<node id="168881969" x="452702.693470533" y="5729964.518132701" />
		<node id="168881977" x="452803.6445463168" y="5729951.659897635" />
		<node id="177247073" x="456817.44557585596" y="5734269.657433062" />
		<node id="177247090" x="456806.31146313227" y="5734267.194766323" />
		<node id="177247096" x="456284.0998494796" y="5733497.042120477" />
		<node id="178765917" x="456141.64714326005" y="5733317.328834314" />
		<node id="178765918" x="456079.3737822047" y="5733347.290503798" />
		<node id="181319718" x="453521.17651607795" y="5730037.878458553" />
		<node id="181319720" x="453504.90175816906" y="5730279.231513742" />
		<node id="183061260" x="459531.4864628606" y="5730437.921078199" />
		<node id="185476510" x="451926.3392216848" y="5738068.020320554" />
		<node id="185476529" x="451955.39317184646" y="5738010.471820081" />
		<node id="185476563" x="451978.21310384147" y="5737920.493598138" />
		<node id="185476574" x="451981.21124351956" y="5737859.568148922" />
		<node id="185476582" x="452013.92389797897" y="5737861.402591147" />
		<node id="185476624" x="451966.7434758627" y="5738091.036412573" />
		<node id="185476633" x="452619.99220279796" y="5734736.47370995" />
		<node id="185476640" x="452662.7700434324" y="5734513.9969077455" />
		<node id="185564196" x="454893.40299387684" y="5734838.550323621" />
		<node id="185564260" x="454807.1492127669" y="5734389.249678758" />
		<node id="188689827" x="456348.6058749826" y="5732205.429906482" />
		<node id="188689831" x="456350.89061609376" y="5732278.6515557105" />
		<node id="188689835" x="456046.6814147198" y="5732175.799643311" />
		<node id="188689838" x="456065.6934576323" y="5732049.271401699" />
		<node id="188689867" x="455744.03699305694" y="5731926.280030159" />
		<node id="192067666" x="455384.6656580334" y="5739495.502146956" />
		<node id="192067680" x="456178.7056018106" y="5739792.052640824" />
		<node id="192120688" x="452207.3624753235" y="5739541.615172304" />
		<node id="192120689" x="452995.98753719707" y="5738024.2735701455" />
		<node id="192207152" x="452503.2820069553" y="5739486.555644923" />
		<node id="193457471" x="455893.28815186635" y="5731412.392264015" />
		<node id="193457475" x="456074.9790433455" y="5731427.088643174" />
		<node id="193457478" x="455924.9679456432" y="5731516.632915876" />
		<node id="193457493" x="456143.74665620696" y="5731554.931896299" />
		<node id="193457522" x="456575.7770605511" y="5731625.299410346" />
		<node id="193497530" x="456141.78382631345" y="5731579.362781847" />
		<node id="193497550" x="456262.7596292151" y="5731706.697893564" />
		<node id="198758990" x="462630.0539641785" y="5729663.959154751" />
		<node id="198759001" x="462301.72216263646" y="5729942.157198578" />
		<node id="201359661" x="457014.47131239716" y="5732676.457555055" />
		<node id="201359984" x="455611.9946294103" y="5733186.608079828" />
		<node id="203820938" x="476804.92165949673" y="5732670.570285764" />
		<node id="203820950" x="476787.627543956" y="5732645.291808947" />
		<node id="203820963" x="476802.55918294925" y="5732622.322850674" />
		<node id="203820971" x="476820.2585154738" y="5732654.63973269" />
		<node id="205363710" x="452142.1016464463" y="5738672.806248664" />
		<node id="205363756" x="452028.5220270872" y="5738975.681468521" />
		<node id="205363758" x="452004.3954718299" y="5738978.903760059" />
		<node id="205363775" x="452261.77251641825" y="5738947.4784909915" />
		<node id="205363778" x="452010.1075277156" y="5738992.841618456" />
		<node id="205363781" x="452002.5714899505" y="5739031.998821229" />
		<node id="205363783" x="452029.2255829285" y="5739033.512924173" />
		<node id="205363807" x="452322.5266792565" y="5739210.543694414" />
		<node id="205363811" x="451906.5725416183" y="5739019.924943909" />
		<node id="205363815" x="452409.99972763704" y="5739031.996099031" />
		<node id="205363819" x="451980.6726139054" y="5738950.74510231" />
		<node id="205363825" x="451950.8043399626" y="5739385.706784329" />
		<node id="205363828" x="452301.17634950625" y="5739261.332364621" />
		<node id="205363831" x="452277.2457031447" y="5739314.114354142" />
		<node id="205363832" x="452591.7582191222" y="5739381.333718943" />
		<node id="205363833" x="452625.7137472008" y="5739404.182193048" />
		<node id="205363857" x="452670.41203566926" y="5739260.033479245" />
		<node id="210181693" x="450203.2898562303" y="5727808.096256476" />
		<node id="210181700" x="450325.8728696606" y="5727824.928730209" />
		<node id="210181731" x="451015.66022899636" y="5727416.070687693" />
		<node id="210181746" x="450364.44738510315" y="5726928.40286728" />
		<node id="210181761" x="450297.10820455226" y="5728016.565074132" />
		<node id="210181858" x="452251.8655181844" y="5728515.295223004" />
		<node id="212338587" x="453516.4223998802" y="5735870.508806007" />
		<node id="212338592" x="453728.079244594" y="5736086.027557194" />
		<node id="212338598" x="453787.86516949564" y="5735942.908480074" />
		<node id="212338604" x="453714.10421691544" y="5735946.989908277" />
		<node id="217776116" x="453507.07573213277" y="5734428.8381912485" />
		<node id="217776125" x="453373.97869733034" y="5734211.332029902" />
		<node id="217776127" x="453516.4153574174" y="5734220.325673489" />
		<node id="218488035" x="453732.83487527544" y="5731932.478455372" />
		<node id="218488040" x="453641.2561993138" y="5731958.623990533" />
		<node id="220759171" x="452141.66803279385" y="5734341.873346209" />
		<node id="220759176" x="451938.79282281775" y="5734838.2744335905" />
		<node id="220759197" x="452054.67163603415" y="5734822.709989729" />
		<node id="220759481" x="452577.42078672687" y="5732947.890707348" />
		<node id="220759502" x="452563.56905470695" y="5733010.785978075" />
		<node id="220759508" x="452531.5596986993" y="5733009.964149997" />
		<node id="220759525" x="452486.17329521535" y="5733008.790421292" />
		<node id="220759536" x="451969.4132143813" y="5735045.542068457" />
		<node id="220759641" x="451695.63890618394" y="5734435.29203983" />
		<node id="220759647" x="451601.5774147899" y="5734707.888647328" />
		<node id="220759684" x="451772.79212982743" y="5735035.231600986" />
		<node id="220759755" x="453174.57321498985" y="5735553.424223817" />
		<node id="223274508" x="453098.628872239" y="5732283.452927986" />
		<node id="223297994" x="453539.31157780014" y="5732848.678115309" />
		<node id="223298002" x="453478.11852667405" y="5732722.523482612" />
		<node id="223311344" x="453536.9179620748" y="5732826.466182086" />
		<node id="223311351" x="453525.7473370452" y="5732826.5692309225" />
		<node id="223311367" x="453375.3512307865" y="5732510.899084516" />
		<node id="223373122" x="452764.1201729943" y="5732904.860499366" />
		<node id="223373144" x="452763.80932095315" y="5732952.701691767" />
		<node id="223373164" x="452712.00498902076" y="5732951.174575248" />
		<node id="223373170" x="452673.30874966504" y="5732950.025331265" />
		<node id="223373183" x="452671.5825350016" y="5732857.423687105" />
		<node id="223373187" x="452712.5577320504" y="5732855.604046392" />
		<node id="223373218" x="452122.48063120426" y="5733822.250505086" />
		<node id="223373229" x="452076.11526250467" y="5733760.983182762" />
		<node id="223373234" x="452098.69824603514" y="5733878.779443555" />
		<node id="223373241" x="452091.0972302639" y="5733901.931219401" />
		<node id="223373288" x="452385.8548058016" y="5734566.259666841" />
		<node id="223373294" x="452357.7266425297" y="5734645.585476423" />
		<node id="223373346" x="452845.98254745774" y="5734983.220567014" />
		<node id="223373381" x="452843.17776727036" y="5735097.854403487" />
		<node id="223779665" x="455719.1983901591" y="5732111.865547606" />
		<node id="225817528" x="454191.7615602999" y="5734401.540312954" />
		<node id="228610971" x="452963.3429235717" y="5734773.26197156" />
		<node id="228610986" x="453020.31241438445" y="5734680.935036622" />
		<node id="228611029" x="452806.8090615374" y="5734626.907327639" />
		<node id="228611042" x="452741.2683070928" y="5734521.212113641" />
		<node id="228611093" x="452179.6444012138" y="5733054.246368656" />
		<node id="228611108" x="452022.2265777541" y="5733113.69221485" />
		<node id="228611130" x="452096.1200979067" y="5732831.041660499" />
		<node id="228611156" x="452434.56923869724" y="5732612.367374922" />
		<node id="228611161" x="452751.7357890049" y="5731826.430731323" />
		<node id="228611178" x="452721.4575044802" y="5731714.2766190125" />
		<node id="229504707" x="458847.7318457048" y="5744647.580099084" />
		<node id="231235591" x="454251.8096843581" y="5734518.237352676" />
		<node id="231235596" x="454265.52194838086" y="5734508.091331588" />
		<node id="231235604" x="454480.7119622743" y="5734388.920406757" />
		<node id="231235618" x="454540.4487043895" y="5734256.289153617" />
		<node id="231235640" x="454778.2074863239" y="5733904.2772102" />
		<node id="231235882" x="453639.276499345" y="5734952.705735221" />
		<node id="231235967" x="454624.5644199504" y="5733363.902416772" />
		<node id="231235974" x="454619.5065879787" y="5733379.519545349" />
		<node id="234130307" x="453320.30145242764" y="5735027.694714436" />
		<node id="234130350" x="453223.2003839479" y="5735064.488794231" />
		<node id="234130370" x="452805.9201740684" y="5734716.15246546" />
		<node id="234130401" x="452649.7533289666" y="5734443.646362654" />
		<node id="236969710" x="454151.12431189924" y="5735230.242209403" />
		<node id="236969718" x="454241.9690990909" y="5735217.74793197" />
		<node id="236969732" x="454293.5421793588" y="5735217.746498175" />
		<node id="236969736" x="454239.36341347854" y="5735183.15813591" />
		<node id="236969945" x="455407.2632600491" y="5734152.516659591" />
		<node id="236970102" x="455476.70557247545" y="5733911.444259934" />
		<node id="236970109" x="455495.23829950916" y="5733929.1988136815" />
		<node id="236970117" x="455485.9238684837" y="5733935.965782096" />
		<node id="236970120" x="455467.9012084595" y="5733918.907470417" />
		<node id="237125056" x="452053.608779181" y="5734087.780242647" />
		<node id="237125063" x="452200.43977089506" y="5734174.297528906" />
		<node id="237125079" x="452243.8978902748" y="5734233.802783775" />
		<node id="237125085" x="452193.1593529673" y="5734359.158134935" />
		<node id="237125089" x="452724.73144667584" y="5734624.218276421" />
		<node id="239697123" x="454095.42676948407" y="5733751.32472168" />
		<node id="239697127" x="454113.63781765156" y="5733777.864024388" />
		<node id="239697134" x="453980.707649843" y="5733795.08243956" />
		<node id="239697168" x="453943.1083479576" y="5732993.622843646" />
		<node id="239698890" x="454125.91329436115" y="5732910.170534192" />
		<node id="239698908" x="454312.5609954291" y="5732748.075985244" />
		<node id="239698917" x="454211.31314926705" y="5732716.372868675" />
		<node id="239816438" x="454269.86990112055" y="5737948.7397816125" />
		<node id="239816457" x="454051.9045269506" y="5738090.237823366" />
		<node id="239816462" x="453507.7537924836" y="5737614.284509551" />
		<node id="239816470" x="453949.2065575446" y="5737818.672496244" />
		<node id="239816475" x="452541.33949640783" y="5739572.1525252815" />
		<node id="239999979" x="457306.8654600541" y="5727750.528410442" />
		<node id="239999980" x="457315.2347025275" y="5727751.291776841" />
		<node id="240026598" x="458831.79373132036" y="5725501.629155622" />
		<node id="240026600" x="458880.6477897687" y="5725499.529352472" />
		<node id="240026604" x="458998.6683406764" y="5725529.111349029" />
		<node id="240026606" x="459022.21710840083" y="5725548.506493825" />
		<node id="240035366" x="460051.5284060967" y="5730057.0156147415" />
		<node id="240035371" x="459769.57300246693" y="5729794.802063931" />
		<node id="240035376" x="459758.94798807654" y="5729664.9892513845" />
		<node id="240040510" x="459516.461153016" y="5725694.169421615" />
		<node id="240079081" x="447852.0371646221" y="5733485.89958905" />
		<node id="240133649" x="452343.963295194" y="5738740.316793138" />
		<node id="240133656" x="452412.9245116619" y="5739026.98543733" />
		<node id="241504177" x="452101.0893947571" y="5732843.1736686705" />
		<node id="241612874" x="457107.2076310036" y="5727417.816836791" />
		<node id="241612880" x="457058.67746064736" y="5727375.3417674275" />
		<node id="243180718" x="454112.09470742836" y="5735721.88285954" />
		<node id="243180719" x="454201.3552886826" y="5735717.521647514" />
		<node id="243180721" x="454270.8304484067" y="5735740.325175865" />
		<node id="243180723" x="454256.31095641747" y="5735813.121041609" />
		<node id="243180725" x="454209.8403882188" y="5735777.906865978" />
		<node id="243180726" x="454206.7609374337" y="5735746.613656531" />
		<node id="243180728" x="454143.211903429" y="5735771.38397034" />
		<node id="243180729" x="454251.6358178279" y="5735744.414781701" />
		<node id="243180733" x="454515.3490028084" y="5735709.568693055" />
		<node id="243180736" x="454503.12446569785" y="5735800.762052243" />
		<node id="243180738" x="454346.1744657458" y="5735828.232554056" />
		<node id="243180741" x="454289.3122376888" y="5735739.801348123" />
		<node id="243180742" x="454214.9828164958" y="5735615.759385391" />
		<node id="243180743" x="454707.02952332015" y="5735765.910914797" />
		<node id="243180746" x="454575.89590914996" y="5735455.871891663" />
		<node id="243180760" x="454547.9480818009" y="5735245.818506086" />
		<node id="243180762" x="454552.7874106922" y="5735255.929719997" />
		<node id="243180785" x="455353.6919391151" y="5734733.209616352" />
		<node id="243180786" x="455356.5283851211" y="5734670.14190139" />
		<node id="243180789" x="455210.7674476367" y="5734656.387805927" />
		<node id="243180791" x="455195.93423533364" y="5734658.621957462" />
		<node id="243180793" x="455208.70478517783" y="5734752.6940327" />
		<node id="243180796" x="455362.786583263" y="5734526.694640021" />
		<node id="243180803" x="455382.8986715948" y="5734441.707023904" />
		<node id="243180813" x="455156.8195620239" y="5734367.136920858" />
		<node id="243180817" x="455061.7433063756" y="5734312.705594389" />
		<node id="243180821" x="454852.92498585815" y="5734269.849951012" />
		<node id="243180849" x="455029.7057700396" y="5733966.880407763" />
		<node id="243180859" x="454446.8764768707" y="5733444.242946206" />
		<node id="243180870" x="454592.06785966386" y="5733510.868274885" />
		<node id="243180888" x="454428.9216590302" y="5732468.35801389" />
		<node id="243186220" x="454430.41567449475" y="5734364.672174361" />
		<node id="243235657" x="455110.0328718607" y="5729848.236059871" />
		<node id="243235667" x="457536.05432931904" y="5730229.806894024" />
		<node id="243828218" x="463389.44122734154" y="5732765.288529209" />
		<node id="243828219" x="463368.3760872766" y="5732755.798658009" />
		<node id="243828220" x="464431.8617870471" y="5729246.357827084" />
		<node id="243828221" x="464430.5133976432" y="5729232.486846366" />
		<node id="243979956" x="451767.95809871383" y="5733896.551662089" />
		<node id="243979957" x="451861.28160030814" y="5733638.002705136" />
		<node id="244114801" x="451349.51455200044" y="5733397.588352771" />
		<node id="244114813" x="450756.77193928754" y="5733338.49276949" />
		<node id="244114814" x="451343.4246951875" y="5731239.634178794" />
		<node id="244114821" x="452950.93153464363" y="5731390.797958659" />
		<node id="244114823" x="453532.5965945315" y="5731911.6978209885" />
		<node id="244114825" x="453468.9652463505" y="5731941.48173434" />
		<node id="244114826" x="453453.75210805057" y="5731948.2401662255" />
		<node id="244114827" x="453469.9028971591" y="5731980.201807917" />
		<node id="244114830" x="453503.53216339566" y="5732005.47323786" />
		<node id="244114835" x="453134.27886619145" y="5731524.406603334" />
		<node id="244114837" x="453220.00534284406" y="5731366.448409504" />
		<node id="244114838" x="453329.9216024949" y="5731345.375365707" />
		<node id="244114839" x="453249.9501298732" y="5731535.222209405" />
		<node id="244114858" x="451649.2320385707" y="5732985.57810157" />
		<node id="244114904" x="451211.25976288185" y="5731278.550820272" />
		<node id="244114913" x="452167.8392626786" y="5731406.177926245" />
		<node id="244114917" x="451153.11997832695" y="5733095.685145884" />
		<node id="244114918" x="451161.9814915586" y="5733109.55814316" />
		<node id="244256921" x="450977.6096476115" y="5732698.009137265" />
		<node id="244256922" x="450958.54854360066" y="5732600.44881182" />
		<node id="244256923" x="451026.06231490127" y="5732587.368020092" />
		<node id="244256924" x="450823.0183265811" y="5732626.651401588" />
		<node id="244388455" x="456378.0328053708" y="5730263.595953176" />
		<node id="244388460" x="456780.4658355966" y="5730203.416661876" />
		<node id="244516748" x="454134.74209716124" y="5736248.00906305" />
		<node id="244516749" x="454265.61278321303" y="5736018.882395368" />
		<node id="246499458_246499457" x="454344.11113197095" y="5735855.601728889" />
		<node id="246499601" x="454367.20913694025" y="5735896.201018138" />
		<node id="246499911" x="454372.4783158812" y="5735957.549955579" />
		<node id="247145378" x="452754.5558379062" y="5736247.487540001" />
		<node id="247145405" x="450817.7255012816" y="5734989.871289377" />
		<node id="247145411" x="451021.37282707344" y="5735133.793133741" />
		<node id="247145413" x="451099.2619979555" y="5735003.690097494" />
		<node id="247145415" x="451029.0036174216" y="5734922.866056568" />
		<node id="247145418" x="450762.1144998251" y="5734837.744801573" />
		<node id="247147012" x="451339.90728084283" y="5730838.086322278" />
		<node id="247147019" x="449654.6095416404" y="5730911.496729707" />
		<node id="247147021" x="449641.16780334525" y="5730924.622283998" />
		<node id="247147023" x="449546.03908689035" y="5731052.138502289" />
		<node id="247147025" x="449536.0327996388" y="5731076.497229331" />
		<node id="247147026" x="449829.33081679" y="5730947.660599535" />
		<node id="247147037" x="448199.311319069" y="5732128.587776962" />
		<node id="247147042" x="448459.4534244943" y="5732399.038644598" />
		<node id="247147048" x="448248.44690784434" y="5732526.710792348" />
		<node id="247147049" x="448244.34322887694" y="5732632.708232428" />
		<node id="247147059" x="448297.59467902855" y="5733036.339865905" />
		<node id="247147060" x="448297.6051614071" y="5733058.885577958" />
		<node id="247147063" x="448190.5104804832" y="5733219.964643939" />
		<node id="247147091" x="449934.3986108478" y="5729331.75271374" />
		<node id="247149640" x="454524.38174000743" y="5731279.065487161" />
		<node id="247149648" x="454549.8753255143" y="5731039.468090028" />
		<node id="247149656" x="455710.16644572705" y="5730514.19091631" />
		<node id="247149657" x="455486.2176931294" y="5730488.101508643" />
		<node id="247149659" x="455749.2305393121" y="5730429.350565874" />
		<node id="247149660" x="455558.55684670014" y="5730406.024600549" />
		<node id="247149661" x="455926.7231141917" y="5730158.821562778" />
		<node id="247149663" x="456132.98416298185" y="5730176.853965108" />
		<node id="247149669" x="454063.392633745" y="5728734.669859396" />
		<node id="247149670" x="454091.457076405" y="5728728.853106209" />
		<node id="247149673" x="454091.00703036203" y="5728717.367683562" />
		<node id="247149674" x="454103.12340620166" y="5728767.0416243905" />
		<node id="247149676" x="454093.43821390014" y="5728664.847466882" />
		<node id="247149677" x="454019.4968655364" y="5728803.372975717" />
		<node id="247149678" x="454063.54762254783" y="5728800.246582851" />
		<node id="247149680" x="454023.57578419056" y="5728852.864201487" />
		<node id="247149682" x="454067.16793975694" y="5728850.264770664" />
		<node id="247149683" x="453930.3831909228" y="5728943.150473045" />
		<node id="247149685" x="453944.9908854112" y="5729351.001091332" />
		<node id="247149686" x="453945.6889252128" y="5729406.251263023" />
		<node id="247149687" x="453999.68483842735" y="5729352.503936477" />
		<node id="247149689" x="453999.48633488663" y="5729404.214210257" />
		<node id="247149694" x="453155.5526445209" y="5729623.945080529" />
		<node id="247149696" x="453131.00322689017" y="5729607.389315162" />
		<node id="247149697" x="453122.9165971745" y="5729558.002621699" />
		<node id="247149698" x="453118.80102357233" y="5729526.286078836" />
		<node id="247149700" x="453157.4298476257" y="5729521.088798253" />
		<node id="247149703" x="453088.9347414451" y="5729613.364016981" />
		<node id="247149704" x="453083.2223005387" y="5729562.264670305" />
		<node id="247149705" x="453079.87004852586" y="5729503.457707072" />
		<node id="247149707" x="453176.26597274875" y="5729494.508994479" />
		<node id="247149710" x="458345.5348229442" y="5725566.834369479" />